Version 4
SHEET 1 880 680
WIRE 112 160 48 160
WIRE 416 160 224 160
WIRE -48 192 -64 192
WIRE 112 192 -48 192
WIRE 320 192 224 192
WIRE 352 192 320 192
WIRE 352 256 352 192
WIRE 416 256 416 240
WIRE 416 256 352 256
FLAG 320 192 0
FLAG -64 272 0
FLAG 48 160 Out
IOPIN 48 160 Out
FLAG -48 192 In
IOPIN -48 192 In
SYMBOL generated\\SN74LS04 160 176 R0
SYMATTR InstName U1
SYMBOL voltage 416 144 R0
WINDOW 123 0 0 Left 0
WINDOW 39 0 0 Left 0
SYMATTR InstName V1
SYMATTR Value 5
SYMBOL voltage -64 176 R0
WINDOW 123 0 0 Left 0
WINDOW 39 0 0 Left 0
SYMATTR InstName V2
SYMATTR Value PULSE(0 5 0 15n 15n 500u 1m)
TEXT -96 328 Left 2 !.tran 5m uic
