Version 4
SHEET 1 880 680
WIRE 160 112 112 112
WIRE 432 112 272 112
WIRE 160 144 -16 144
WIRE 352 144 272 144
WIRE -16 160 -16 144
WIRE 352 240 352 144
WIRE 400 240 352 240
WIRE 432 240 432 192
WIRE 432 240 400 240
FLAG -16 240 0
FLAG 400 240 0
FLAG 112 112 Out
IOPIN 112 112 Out
FLAG -16 144 In
IOPIN -16 144 In
SYMBOL voltage -16 144 R0
SYMATTR InstName V1
SYMBOL Generated\\CD4069UB 208 128 R0
SYMATTR InstName U1
SYMBOL voltage 432 96 R0
SYMATTR InstName V2
