Version 4
SHEET 1 880 680
WIRE -32 128 -64 128
WIRE 144 128 48 128
WIRE 400 128 256 128
WIRE 400 144 400 128
WIRE 144 160 80 160
WIRE 320 160 256 160
WIRE 80 192 80 160
WIRE 320 256 320 160
WIRE 352 256 320 256
WIRE 400 256 400 224
WIRE 400 256 352 256
WIRE -64 304 -64 128
WIRE 0 304 -64 304
WIRE 80 304 80 272
WIRE 80 304 0 304
FLAG 0 304 0
FLAG 352 256 0
SYMBOL generated\\CD4069UB 192 144 R0
SYMATTR InstName U1
SYMBOL res 64 112 R90
WINDOW 0 0 56 VBottom 2
WINDOW 3 32 56 VTop 2
SYMATTR InstName R1
SYMATTR Value 997
SYMBOL voltage 80 176 R0
SYMATTR InstName V1
SYMBOL voltage 400 128 R0
WINDOW 123 0 0 Left 0
WINDOW 39 0 0 Left 0
SYMATTR InstName V2
SYMATTR Value 5
